tests/golden/reports/show_currents_elem_autotrans.txt

CIRCUIT ELEMENT CURRENTS

(Currents into element from indicated bus)

Power Delivery Elements

  Bus Phase    Magnitude, A     Angle      (Real)   +j  (Imag)

ELEMENT = "Vsource.source"
SRC      1           150.88 /_  149.2 =    -129.64 +j    77.197
SRC      2           150.88 /_   29.2 =     131.67 +j    73.674
SRC      3           150.88 /_  -90.8 =    -2.0342 +j   -150.87
------------
SRC      0           150.88 /_  -30.8 =     129.64 +j   -77.197
SRC      0           150.88 /_ -150.8 =    -131.67 +j   -73.674
SRC      0           150.88 /_   89.2 =     2.0342 +j    150.87

ELEMENT = "Line.lsrc"
SRC      1           150.88 /_  -30.8 =     129.64 +j   -77.197
SRC      2           150.88 /_ -150.8 =    -131.67 +j   -73.674
SRC      3           150.88 /_   89.2 =     2.0342 +j    150.87
SRC  Resid        2.7851E-8 /_ -153.3 =   -2.4889E-8 +j -1.2498E-8
------------
HIGH     1           150.88 /_  149.2 =    -129.64 +j    77.197
HIGH     2           150.88 /_   29.2 =     131.67 +j    73.674
HIGH     3           150.88 /_  -90.8 =    -2.0342 +j   -150.87
HIGH Resid        2.7851E-8 /_   26.7 =   2.4889E-8 +j 1.2498E-8

ELEMENT = "AutoTrans.at"
HIGH     1           150.88 /_  -30.8 =     129.64 +j   -77.197
HIGH     2           150.88 /_ -150.8 =    -131.67 +j   -73.674
HIGH     3           150.88 /_   89.2 =     2.0342 +j    150.87
HIGH Resid        2.7842E-8 /_ -153.3 =   -2.4877E-8 +j -1.2503E-8
------------
LOW      1           502.95 /_  149.2 =    -432.14 +j    257.32
LOW      2           502.95 /_   29.2 =     438.92 +j    245.58
LOW      3           502.95 /_  -90.8 =    -6.7797 +j    -502.9
LOW  Resid        9.2807E-8 /_   26.7 =   8.2923E-8 +j 4.1676E-8

ELEMENT = "Line.lf"
LOW      1           502.95 /_  -30.8 =     432.14 +j   -257.32
LOW      2           502.95 /_ -150.8 =    -438.92 +j   -245.58
LOW      3           502.95 /_   89.2 =     6.7797 +j     502.9
LOW  Resid        9.2803E-8 /_ -153.3 =   -8.2924E-8 +j -4.1667E-8
------------
FDR      1           502.95 /_  149.2 =    -432.14 +j    257.32
FDR      2           502.95 /_   29.2 =     438.92 +j    245.58
FDR      3           502.95 /_  -90.8 =    -6.7797 +j    -502.9
FDR  Resid        9.2803E-8 /_   26.7 =   8.2924E-8 +j 4.1667E-8

= = = = = = = = = = = = = = = = = = =  = = = = = = = = = = =  = =

Power Conversion Elements

  Bus Phase    Magnitude, A     Angle      (Real)   +j  (Imag)

ELEMENT = "Load.ld1"
FDR      1           502.94 /_  -30.8 =     432.09 +j   -257.38
FDR      2           502.94 /_ -150.8 =    -438.94 +j   -245.52
FDR      3           502.94 /_   89.2 =      6.849 +j    502.89
FDR      0        9.2796E-8 /_ -153.3 =  -8.293E-8 +j -4.1638E-8

